Version 4
SHEET 1 880 680
WIRE 368 -64 320 -64
WIRE 480 -64 432 -64
WIRE 704 -64 560 -64
WIRE 592 32 592 16
WIRE 560 48 528 48
WIRE 704 64 704 -64
WIRE 704 64 624 64
WIRE 320 80 320 -64
WIRE 464 80 320 80
WIRE 560 80 464 80
WIRE -192 96 -192 80
WIRE -96 96 -96 80
WIRE 320 112 320 80
WIRE 592 112 592 96
WIRE 464 128 464 80
WIRE 528 160 528 48
WIRE 704 160 704 144
WIRE 704 160 528 160
WIRE 704 176 704 160
WIRE -192 192 -192 176
WIRE -96 192 -96 176
WIRE 320 288 320 176
WIRE 464 288 464 208
WIRE 464 288 320 288
WIRE 528 288 464 288
WIRE 704 288 704 256
WIRE 704 288 528 288
WIRE 528 304 528 288
FLAG -96 192 0
FLAG -192 192 0
FLAG -192 80 Vcc
FLAG -96 80 Vee
FLAG 592 16 Vcc
FLAG 528 304 0
FLAG 592 112 Vee
SYMBOL OpAmps\\OP07 592 0 R0
SYMATTR InstName U1
SYMBOL voltage -192 80 R0
SYMATTR InstName V1
SYMATTR Value 5
SYMBOL voltage -96 80 R0
SYMATTR InstName V2
SYMATTR Value -5
SYMBOL res 688 48 R0
SYMATTR InstName R1
SYMATTR Value 10k
SYMBOL res 688 160 R0
SYMATTR InstName R2
SYMATTR Value 4.9k
SYMBOL res 448 112 R0
SYMATTR InstName R3
SYMATTR Value 7.5k
SYMBOL cap 336 176 R180
WINDOW 0 24 56 Left 2
WINDOW 3 24 8 Left 2
SYMATTR InstName C2
SYMATTR Value 10nF
SYMBOL res 576 -80 R90
WINDOW 0 0 56 VBottom 2
WINDOW 3 32 56 VTop 2
SYMATTR InstName R4
SYMATTR Value 7.5k
SYMBOL cap 432 -80 R90
WINDOW 0 0 32 VBottom 2
WINDOW 3 32 32 VTop 2
SYMATTR InstName C1
SYMATTR Value 10nF
TEXT -24 456 Left 2 !.tran 0 40m 10u startup
